Circuit: * C:\users\bonga\My Documents\EEE4022F\EEE4022F_Design_Elements\Spice_Models\LM358_Texas_Intstruments\lm358-test.asc

Direct Newton iteration failed to find .op point.  (Use ".option noopiter" to skip.)
Starting Gmin stepping
Gmin = 10
Gmin = 1.07374
Gmin = 0.115292
Gmin = 0.0123794
Gmin = 0.00132923
vernier = 0.5
vernier = 0.25
Gmin = 0.000387166
vernier = 0.125
vernier = 0.0625
Gmin = 0.00033721
vernier = 0.0833333
vernier = 0.111111
Gmin = 0.000267039
vernier = 0.148148
vernier = 0.197531
Gmin = 0.000184562
vernier = 0.263374
Gmin = 0.000103812
vernier = 0.351165
vernier = 0.46822
Gmin = 4.02416e-005
vernier = 0.624294
vernier = 0.832392
Gmin = 9.25569e-006
vernier = 1
Gmin = 1.13904e-006
Gmin = 1.22304e-007
vernier = 0.5
vernier = 0.25
vernier = 0.125
vernier = 0.0625
vernier = 0.03125
vernier = 0.015625
vernier = 0.0078125
Gmin = 7.82745e-008
vernier = 0.00390625
vernier = 0.00195313
vernier = 0.000976563
vernier = 0.000488281
Gmin = 0
Gmin stepping failed

Starting source stepping with srcstepmethod=0
Source Step = 3.0303%
Source Step = 33.3333%
Source Step = 63.6364%
Source Step = 88.6364%
vernier = 0.0625
Source Step = 87.8995%
Starting source stepping with srcstepmethod=1
Source Step = 3.0303%
Source Step = 33.3333%
Source Step = 63.6364%
Source Step = 88.6364%
vernier = 0.0625
Source stepping failed

Pseudo Transient succeeded in finding the operating point at 298.993 ms.

Date: Mon Apr 07 19:28:12 2025
Total elapsed time: 0.846 seconds.

tnom = 27
temp = 27
method = modified trap
totiter = 8308
traniter = 64
tranpoints = 33
accept = 33
rejected = 21
matrix size = 139
fillins = 196
solver = Normal
Thread vector: 6.8/4.6[3] 1.3/3.3[1] 2.2/2.9[1] 0.6/1.4[1]  2592/500
Matrix Compiler1: 17.32 KB object code size  3.2/1.5/[0.7]
Matrix Compiler2: 14.80 KB object code size  1.4/2.0/[0.7]

