Circuit: * C:\users\bonga\My Documents\EEE4022F\Digitizing-HP141T\Simulations\hp141t-emulator-simulations\Draft2.asc

WARNING: Less than two connections to node Y.  This node is used by V1.
Direct Newton iteration for .op point succeeded.

Date: Mon Apr 28 21:51:38 2025
Total elapsed time: 0.033 seconds.

tnom = 27
temp = 27
method = modified trap
totiter = 821
traniter = 818
tranpoints = 410
accept = 254
rejected = 156
matrix size = 2
fillins = 0
solver = Normal
Matrix Compiler1: 18 bytes object code size  0.1/0.1/[0.0]
Matrix Compiler2: 82 bytes object code size  0.1/0.1/[0.0]

