Circuit: * C:\users\bonga\My Documents\EEE4022F\EEE4022F_Design_Elements\Spice_Models\LM358_Texas_Intstruments\emulator-triangle-shift-ct-sim.asc

Direct Newton iteration failed to find .op point.  (Use ".option noopiter" to skip.)
Starting Gmin stepping
Gmin = 10
Gmin = 1.07374
Gmin = 0.115292
Gmin = 0.0123794
Gmin = 0.00132923
Gmin = 0.000142725
vernier = 0.5
vernier = 0.25
vernier = 0.125
vernier = 0.0625
Gmin = 0.000162785
vernier = 0.03125
vernier = 0.015625
vernier = 0.0208333
Gmin = 0.000160461
vernier = 0.0277778
Gmin = 0.000150769
vernier = 0.037037
vernier = 0.0493827
Gmin = 0.000135825
vernier = 0.0658435
vernier = 0.0877914
Gmin = 0.000115059
vernier = 0.117055
Gmin = 8.8725e-005
vernier = 0.156073
vernier = 0.208098
Gmin = 5.75709e-005
vernier = 0.277464
vernier = 0.138732
Gmin = 3.59511e-005
vernier = 0.0693659
vernier = 0.0924879
Gmin = 3.08032e-005
vernier = 0.123317
vernier = 0.164423
Gmin = 2.3025e-005
vernier = 0.21923
Gmin = 1.44164e-005
vernier = 0.292307
vernier = 0.389743
Gmin = 6.77272e-006
vernier = 0.519657
vernier = 0.692876
Gmin = 2.09881e-006
vernier = 0.923834
Gmin = 3.34088e-007
vernier = 1
Gmin = 3.64274e-008
Gmin = 3.91136e-009
Gmin = 4.19979e-010
Gmin = 4.50949e-011
Gmin = 4.84203e-012
Gmin = 5.19909e-013
Gmin = 0
Gmin stepping succeeded in finding the operating point.

Direct Newton iteration failed to find .op point.  (Use ".option noopiter" to skip.)
Starting Gmin stepping
Gmin = 10
Gmin = 1.07374
Gmin = 0.115292
Gmin = 0.0123794
Gmin = 0.00132923
Gmin = 0.000142725
vernier = 0.5
vernier = 0.25
vernier = 0.333333
Gmin = 0.000108106
vernier = 0.444444
Gmin = 4.27811e-005
vernier = 0.592592
vernier = 0.790123
Gmin = 9.78695e-006
vernier = 1
Gmin = 1.19514e-006
Gmin = 1.28327e-007
vernier = 0.5
vernier = 0.25
vernier = 0.125
vernier = 0.0625
vernier = 0.03125
vernier = 0.015625
vernier = 0.0078125
Gmin = 8.21291e-008
vernier = 0.00390625
vernier = 0.00195313
vernier = 0.000976563
vernier = 0.000488281
Gmin = 0
Gmin stepping failed

Starting source stepping with srcstepmethod=0
Source Step = 3.0303%
Source Step = 33.3333%
Source Step = 63.6364%
Source Step = 88.6364%
vernier = 0.0625
Source Step = 87.8995%
Source Step = 87.9291%
Source Step = 87.9587%
Source Step = 87.9883%
Source Step = 88.0179%
Source Step = 88.0475%
vernier = 0.00146484
Source Step = 88.0919%
Source Step = 88.1362%
Source Step = 88.1806%
Source Step = 88.225%
Source Step = 88.2694%
vernier = 0.00219727
Source Step = 88.3338%
Source Step = 88.4004%
Source Step = 88.4669%
Source Step = 88.5335%
Source Step = 88.6001%
vernier = 0.0032959
Source Step = 88.6933%
Source Step = 88.7932%
Source Step = 88.8931%
Source Step = 88.993%
Source Step = 89.0928%
vernier = 0.00494385
Source Step = 89.2277%
Source Step = 89.3775%
Source Step = 89.5273%
Source Step = 89.6771%
Source Step = 89.8269%
vernier = 0.00741577
Source Step = 90.0217%
Source Step = 90.1397%
Source Step = 90.1958%
Source Step = 90.252%
Source Step = 90.3082%
Source Step = 90.3644%
Source Step = 90.4206%
Source Step = 90.4767%
Source Step = 90.5329%
Source Step = 90.5891%
Source Step = 90.6453%
vernier = 0.00278091
Source Step = 90.7211%
Source Step = 90.8054%
Source Step = 90.8897%
Source Step = 90.9739%
Source Step = 91.0582%
vernier = 0.00417137
Source Step = 91.1678%
Source Step = 91.2942%
Source Step = 91.4206%
Source Step = 91.547%
Source Step = 91.6734%
vernier = 0.00625706
Source Step = 91.8314%
Source Step = 92.021%
Source Step = 92.2106%
Source Step = 92.4002%
Source Step = 92.5898%
vernier = 0.00938559
Source Step = 92.8173%
Source Step = 93.1017%
Source Step = 93.3862%
Source Step = 93.6706%
Source Step = 93.955%
vernier = 0.0140784
Source Step = 94.2821%
Source Step = 94.7087%
Source Step = 95.1353%
Source Step = 95.5619%
Source Step = 95.9885%
vernier = 0.0211176
Source Step = 96.4578%
Source Step = 97.0977%
Source Step = 97.7377%
Source Step = 98.3776%
Source Step = 99.0175%
vernier = 0.0316764
Source Step = 99.6894%
Source stepping succeeded in finding the operating point.

Direct Newton iteration failed to find .op point.  (Use ".option noopiter" to skip.)
Starting Gmin stepping
Gmin = 10
Gmin = 1.07374
Gmin = 0.115292
Gmin = 0.0123794
Gmin = 0.00132923
Gmin = 0.000142725
vernier = 0.5
vernier = 0.25
vernier = 0.125
vernier = 0.0625
Gmin = 0.000146958
vernier = 0.03125
vernier = 0.015625
vernier = 0.0208333
Gmin = 0.00014486
vernier = 0.0277778
Gmin = 0.000136111
vernier = 0.037037
vernier = 0.0493827
Gmin = 0.00012262
vernier = 0.0658435
vernier = 0.0877914
Gmin = 0.000103873
vernier = 0.117055
Gmin = 8.00989e-005
vernier = 0.156073
vernier = 0.208098
Gmin = 5.19737e-005
vernier = 0.277464
vernier = 0.138732
Gmin = 3.24559e-005
vernier = 0.0693659
vernier = 0.0924879
Gmin = 2.78085e-005
vernier = 0.123317
vernier = 0.164423
Gmin = 2.07864e-005
vernier = 0.21923
Gmin = 1.30148e-005
vernier = 0.292307
vernier = 0.389743
Gmin = 6.11426e-006
vernier = 0.519657
vernier = 0.692876
Gmin = 1.89476e-006
vernier = 0.923834
Gmin = 3.01608e-007
vernier = 1
vernier = 0.5
vernier = 0.25
vernier = 0.125
Gmin = 8.02877e-008
vernier = 0.0625
vernier = 0.03125
vernier = 0.015625
vernier = 0.0078125
vernier = 0.00390625
vernier = 0.00195313
vernier = 0.000976563
vernier = 0.000488281
Gmin = 0
Gmin stepping failed

Starting source stepping with srcstepmethod=0
Source Step = 3.0303%
Source Step = 33.3333%
Source Step = 63.6364%
Source Step = 88.6364%
vernier = 0.0625
Source Step = 87.8995%
Source Step = 87.9291%
Source Step = 87.9587%
Source Step = 87.9883%
Source Step = 88.0179%
Source Step = 88.0475%
vernier = 0.00146484
Source Step = 88.0919%
Source Step = 88.1362%
Source Step = 88.1806%
Source Step = 88.225%
Source Step = 88.2694%
vernier = 0.00219727
Source Step = 88.3338%
Source Step = 88.4004%
Source Step = 88.4669%
Source Step = 88.5335%
Source Step = 88.6001%
vernier = 0.0032959
Source Step = 88.6933%
Source Step = 88.7932%
Source Step = 88.8931%
Source Step = 88.993%
Source Step = 89.0928%
vernier = 0.00494385
Source Step = 89.2277%
Source Step = 89.3775%
Source Step = 89.5273%
Source Step = 89.6771%
Source Step = 89.8269%
vernier = 0.00741577
Source Step = 90.0217%
Source Step = 90.1397%
Source Step = 90.1958%
Source Step = 90.252%
Source Step = 90.3082%
Source Step = 90.3644%
Source Step = 90.4206%
Source Step = 90.4767%
Source Step = 90.5329%
Source Step = 90.5891%
Source Step = 90.6453%
vernier = 0.00278091
Source Step = 90.7211%
Source Step = 90.8054%
Source Step = 90.8897%
Source Step = 90.9739%
Source Step = 91.0582%
vernier = 0.00417137
Source Step = 91.1678%
Source Step = 91.2942%
Source Step = 91.4206%
Source Step = 91.547%
Source Step = 91.6734%
vernier = 0.00625706
Source Step = 91.8314%
Source Step = 92.021%
Source Step = 92.2106%
Source Step = 92.4002%
Source Step = 92.5898%
vernier = 0.00938559
Source Step = 92.8173%
Source Step = 93.1017%
Source Step = 93.3862%
Source Step = 93.6706%
Source Step = 93.955%
vernier = 0.0140784
Source Step = 94.2821%
Source Step = 94.7087%
Source Step = 95.1353%
Source Step = 95.5619%
Source Step = 95.9885%
vernier = 0.0211176
Source Step = 96.4578%
Source Step = 97.0977%
Source Step = 97.7377%
Source Step = 98.3776%
Source Step = 99.0175%
vernier = 0.0316764
Source Step = 99.6894%
Source stepping succeeded in finding the operating point.

Direct Newton iteration failed to find .op point.  (Use ".option noopiter" to skip.)
Starting Gmin stepping
Gmin = 10
Gmin = 1.07374
Gmin = 0.115292
Gmin = 0.0123794
Gmin = 0.00132923
Gmin = 0.000142725
Gmin = 1.5325e-005
Gmin = 1.6455e-006
Gmin = 1.76685e-007
Gmin = 1.89714e-008
Gmin = 2.03704e-009
Gmin = 2.18725e-010
Gmin = 2.34854e-011
Gmin = 2.52173e-012
Gmin = 2.70769e-013
Gmin = 0
Gmin stepping succeeded in finding the operating point.

Direct Newton iteration failed to find .op point.  (Use ".option noopiter" to skip.)
Starting Gmin stepping
Gmin = 10
Gmin = 1.07374
Gmin = 0.115292
Gmin = 0.0123794
Gmin = 0.00132923
Gmin = 0.000142725
vernier = 0.5
vernier = 0.25
vernier = 0.125
Gmin = 9.26283e-005
vernier = 0.166667
Gmin = 6.41085e-005
vernier = 0.222222
vernier = 0.296296
Gmin = 3.48251e-005
vernier = 0.395061
vernier = 0.526748
Gmin = 1.3395e-005
vernier = 0.702331
Gmin = 3.09397e-006
vernier = 0.936441
vernier = 1
Gmin = 3.58718e-007
vernier = 0.5
vernier = 0.25
vernier = 0.125
Gmin = 9.40357e-008
vernier = 0.0625
vernier = 0.03125
vernier = 0.015625
vernier = 0.0078125
vernier = 0.00390625
vernier = 0.00195313
vernier = 0.000976563
vernier = 0.000488281
Gmin = 0
Gmin stepping failed

Starting source stepping with srcstepmethod=0
Source Step = 3.0303%
Source Step = 33.3333%
Source Step = 63.6364%
Source Step = 88.6364%
vernier = 0.0625
Source Step = 87.8995%
Source Step = 87.9291%
Source Step = 87.9587%
Source Step = 87.9883%
Source Step = 88.0179%
Source Step = 88.0475%
vernier = 0.00146484
Source Step = 88.0919%
Source Step = 88.1362%
Source Step = 88.1806%
Source Step = 88.225%
Source Step = 88.2694%
vernier = 0.00219727
Source Step = 88.3338%
Source Step = 88.4004%
Source Step = 88.4669%
Source Step = 88.5335%
Source Step = 88.6001%
vernier = 0.0032959
Source Step = 88.6933%
Source Step = 88.7932%
Source Step = 88.8931%
Source Step = 88.993%
Source Step = 89.0928%
vernier = 0.00494385
Source Step = 89.2277%
Source Step = 89.3775%
Source Step = 89.5273%
Source Step = 89.6771%
Source Step = 89.8269%
vernier = 0.00741577
Source Step = 90.0217%
Source Step = 90.1565%
Source Step = 90.2127%
Source Step = 90.2689%
Source Step = 90.325%
Source Step = 90.3812%
Source Step = 90.4374%
vernier = 0.00278091
Source Step = 90.5104%
Source Step = 90.5947%
Source Step = 90.679%
Source Step = 90.7633%
Source Step = 90.8475%
vernier = 0.00417137
Source Step = 90.9529%
Source Step = 91.0793%
Source Step = 91.2057%
Source Step = 91.3321%
Source Step = 91.4585%
vernier = 0.00625706
Source Step = 91.6102%
Source Step = 91.7998%
Source Step = 91.9894%
Source Step = 92.179%
Source Step = 92.3686%
vernier = 0.00938559
Source Step = 92.5866%
Source Step = 92.8711%
Source Step = 93.1555%
Source Step = 93.4399%
Source Step = 93.7243%
vernier = 0.0140784
Source Step = 94.0371%
Source Step = 94.4638%
Source Step = 94.8904%
Source Step = 95.317%
Source Step = 95.7436%
vernier = 0.0211176
Source Step = 96.1916%
Source Step = 96.8315%
Source Step = 97.4714%
Source Step = 98.1113%
Source Step = 98.7513%
Source Step = 99.3912%
vernier = 0.0316764
Source stepping succeeded in finding the operating point.

Direct Newton iteration failed to find .op point.  (Use ".option noopiter" to skip.)
Starting Gmin stepping
Gmin = 10
Gmin = 1.07374
Gmin = 0.115292
Gmin = 0.0123794
Gmin = 0.00132923
Gmin = 0.000142725
vernier = 0.5
vernier = 0.25
vernier = 0.125
vernier = 0.0625
Gmin = 0.000107463
vernier = 0.03125
vernier = 0.0416667
Gmin = 0.000100198
vernier = 0.0555555
vernier = 0.074074
Gmin = 8.77905e-005
vernier = 0.0987653
Gmin = 7.08986e-005
vernier = 0.131687
vernier = 0.175583
Gmin = 5.00805e-005
vernier = 0.23411
vernier = 0.312147
Gmin = 2.90303e-005
vernier = 0.416196
vernier = 0.208098
Gmin = 1.63171e-005
vernier = 0.104049
vernier = 0.0520245
vernier = 0.0693659
Gmin = 1.5548e-005
vernier = 0.0924879
Gmin = 1.26545e-005
vernier = 0.123317
vernier = 0.164423
Gmin = 8.97726e-006
vernier = 0.21923
vernier = 0.292307
Gmin = 5.22219e-006
vernier = 0.389743
Gmin = 2.25453e-006
vernier = 0.519657
vernier = 0.692876
Gmin = 5.71829e-007
vernier = 0.923834
vernier = 1
Gmin = 7.64236e-008
vernier = 0.5
vernier = 0.25
vernier = 0.125
vernier = 0.0625
vernier = 0.03125
vernier = 0.015625
vernier = 0.0078125
vernier = 0.00390625
vernier = 0.00195313
vernier = 0.000976563
Gmin = 9.55295e-008
vernier = 0.000488281
Gmin = 0
Gmin stepping failed

Starting source stepping with srcstepmethod=0
Source Step = 3.0303%
Source Step = 33.3333%
Source Step = 63.6364%
Source Step = 88.6364%
vernier = 0.0625
Source Step = 87.8995%
Source Step = 87.9291%
Source Step = 87.9587%
Source Step = 87.9883%
Source Step = 88.0179%
Source Step = 88.0475%
vernier = 0.00146484
Source Step = 88.0919%
Source Step = 88.1362%
Source Step = 88.1806%
Source Step = 88.225%
Source Step = 88.2694%
vernier = 0.00219727
Source Step = 88.3338%
Source Step = 88.4004%
Source Step = 88.4669%
Source Step = 88.5335%
Source Step = 88.6001%
vernier = 0.0032959
Source Step = 88.6933%
Source Step = 88.7932%
Source Step = 88.8931%
Source Step = 88.993%
Source Step = 89.0928%
vernier = 0.00494385
Source Step = 89.2277%
Source Step = 89.3775%
Source Step = 89.5273%
Source Step = 89.6771%
Source Step = 89.8269%
vernier = 0.00741577
Source Step = 90.0217%
Source Step = 90.1565%
Source Step = 90.2127%
Source Step = 90.2689%
Source Step = 90.325%
Source Step = 90.3812%
Source Step = 90.4374%
vernier = 0.00278091
Source Step = 90.5104%
Source Step = 90.5947%
Source Step = 90.679%
Source Step = 90.7633%
Source Step = 90.8475%
vernier = 0.00417137
Source Step = 90.9529%
Source Step = 91.0793%
Source Step = 91.2057%
Source Step = 91.3321%
Source Step = 91.4585%
vernier = 0.00625706
Source Step = 91.6102%
Source Step = 91.7998%
Source Step = 91.9894%
Source Step = 92.179%
Source Step = 92.3686%
vernier = 0.00938559
Source Step = 92.5866%
Source Step = 92.8711%
Source Step = 93.1555%
Source Step = 93.4399%
Source Step = 93.7243%
vernier = 0.0140784
Source Step = 94.0371%
Source Step = 94.4638%
Source Step = 94.8904%
Source Step = 95.317%
Source Step = 95.7436%
vernier = 0.0211176
Source Step = 96.1916%
Source Step = 96.8315%
Source Step = 97.4714%
Source Step = 97.8034%
Source Step = 97.8434%
Source Step = 97.8834%
Source Step = 97.9234%
Source Step = 97.9634%
Source Step = 98.0034%
vernier = 0.00197977
Source Step = 98.0574%
Source Step = 98.1173%
Source Step = 98.1773%
Source Step = 98.2373%
Source Step = 98.2973%
vernier = 0.00296966
Source Step = 98.3753%
Source Step = 98.4653%
Source Step = 98.5553%
Source Step = 98.6453%
Source Step = 98.7353%
vernier = 0.00445449
Source Step = 98.8478%
Source Step = 98.9827%
Source Step = 99.1177%
Source Step = 99.2527%
Source Step = 99.3877%
vernier = 0.00668173
Source Step = 99.5497%
Source Step = 99.7522%
Source Step = 99.9546%
Source stepping succeeded in finding the operating point.

Direct Newton iteration failed to find .op point.  (Use ".option noopiter" to skip.)
Starting Gmin stepping
Gmin = 10
Gmin = 1.07374
Gmin = 0.115292
Gmin = 0.0123794
Gmin = 0.00132923
Gmin = 0.000142725
vernier = 0.5
vernier = 0.25
vernier = 0.125
vernier = 0.0625
Gmin = 0.000119404
vernier = 0.03125
vernier = 0.0416667
Gmin = 0.000111331
vernier = 0.0555555
vernier = 0.074074
Gmin = 9.7545e-005
vernier = 0.0987653
Gmin = 7.87762e-005
vernier = 0.131687
vernier = 0.175583
Gmin = 5.5645e-005
vernier = 0.23411
vernier = 0.312147
Gmin = 3.22558e-005
vernier = 0.416196
vernier = 0.208098
Gmin = 1.90267e-005
vernier = 0.277464
vernier = 0.369952
Gmin = 9.63208e-006
vernier = 0.493269
Gmin = 3.36542e-006
vernier = 0.657691
vernier = 0.876922
Gmin = 6.10986e-007
vernier = 1
Gmin = 6.89572e-008
vernier = 0.5
vernier = 0.25
vernier = 0.125
vernier = 0.0625
vernier = 0.03125
vernier = 0.015625
vernier = 0.0078125
vernier = 0.00390625
vernier = 0.00195313
vernier = 0.000976563
Gmin = 8.61965e-008
vernier = 0.000488281
Gmin = 0
Gmin stepping failed

Starting source stepping with srcstepmethod=0
Source Step = 3.0303%
Source Step = 33.3333%
Source Step = 63.6364%
Source Step = 88.6364%
vernier = 0.0625
Source Step = 87.8995%
Source Step = 87.9291%
Source Step = 87.9587%
Source Step = 87.9883%
Source Step = 88.0179%
Source Step = 88.0475%
vernier = 0.00146484
Source Step = 88.0919%
Source Step = 88.1362%
Source Step = 88.1806%
Source Step = 88.225%
Source Step = 88.2694%
vernier = 0.00219727
Source Step = 88.3338%
Source Step = 88.4004%
Source Step = 88.4669%
Source Step = 88.5335%
Source Step = 88.6001%
vernier = 0.0032959
Source Step = 88.6933%
Source Step = 88.7932%
Source Step = 88.8931%
Source Step = 88.993%
Source Step = 89.0928%
vernier = 0.00494385
Source Step = 89.2277%
Source Step = 89.3775%
Source Step = 89.5273%
Source Step = 89.6771%
Source Step = 89.8269%
vernier = 0.00741577
Source Step = 90.0217%
Source Step = 90.1565%
Source Step = 90.2127%
Source Step = 90.2689%
Source Step = 90.325%
Source Step = 90.3812%
Source Step = 90.4374%
vernier = 0.00278091
Source Step = 90.5104%
Source Step = 90.5947%
Source Step = 90.679%
Source Step = 90.7633%
Source Step = 90.8475%
vernier = 0.00417137
Source Step = 90.9529%
Source Step = 91.0793%
Source Step = 91.2057%
Source Step = 91.3321%
Source Step = 91.4585%
vernier = 0.00625706
Source Step = 91.6102%
Source Step = 91.7998%
Source Step = 91.9894%
Source Step = 92.179%
Source Step = 92.3686%
vernier = 0.00938559
Source Step = 92.5866%
Source Step = 92.8711%
Source Step = 93.1555%
Source Step = 93.4399%
Source Step = 93.7243%
vernier = 0.0140784
Source Step = 94.0371%
Source Step = 94.4638%
Source Step = 94.8904%
Source Step = 95.317%
Source Step = 95.7436%
vernier = 0.0211176
Source Step = 96.1916%
Source Step = 96.8315%
Source Step = 97.4714%
Source Step = 98.1113%
Source Step = 98.7513%
Source Step = 99.3912%
vernier = 0.0316764
Source stepping succeeded in finding the operating point.

Direct Newton iteration failed to find .op point.  (Use ".option noopiter" to skip.)
Starting Gmin stepping
Gmin = 10
Gmin = 1.07374
Gmin = 0.115292
Gmin = 0.0123794
Gmin = 0.00132923
Gmin = 0.000142725
vernier = 0.5
vernier = 0.25
vernier = 0.125
vernier = 0.0625
Gmin = 0.000130259
vernier = 0.03125
vernier = 0.0416667
Gmin = 0.000121452
vernier = 0.0555555
vernier = 0.074074
Gmin = 0.000106413
vernier = 0.0987653
Gmin = 8.59377e-005
vernier = 0.131687
vernier = 0.175583
Gmin = 6.07036e-005
vernier = 0.23411
vernier = 0.312147
Gmin = 3.51882e-005
vernier = 0.416196
vernier = 0.208098
vernier = 0.104049
Gmin = 2.35546e-005
vernier = 0.138732
Gmin = 1.7323e-005
vernier = 0.184976
vernier = 0.246634
Gmin = 1.03965e-005
vernier = 0.328846
vernier = 0.438461
Gmin = 4.66335e-006
vernier = 0.584614
Gmin = 1.35691e-006
vernier = 0.779486
vernier = 1
Gmin = 1.90979e-007
vernier = 0.5
vernier = 0.25
vernier = 0.125
vernier = 0.0625
vernier = 0.03125
vernier = 0.015625
Gmin = 9.7781e-008
vernier = 0.0078125
vernier = 0.00390625
vernier = 0.00195313
vernier = 0.000976563
vernier = 0.000488281
Gmin = 0
Gmin stepping failed

Starting source stepping with srcstepmethod=0
Source Step = 3.0303%
Source Step = 33.3333%
Source Step = 63.6364%
Source Step = 88.6364%
vernier = 0.0625
Source Step = 87.8995%
Source Step = 87.9291%
Source Step = 87.9587%
Source Step = 87.9883%
Source Step = 88.0179%
Source Step = 88.0475%
vernier = 0.00146484
Source Step = 88.0919%
Source Step = 88.1362%
Source Step = 88.1806%
Source Step = 88.225%
Source Step = 88.2694%
vernier = 0.00219727
Source Step = 88.3338%
Source Step = 88.4004%
Source Step = 88.4669%
Source Step = 88.5335%
Source Step = 88.6001%
vernier = 0.0032959
Source Step = 88.6933%
Source Step = 88.7932%
Source Step = 88.8931%
Source Step = 88.993%
Source Step = 89.0928%
vernier = 0.00494385
Source Step = 89.2277%
Source Step = 89.3775%
Source Step = 89.5273%
Source Step = 89.6771%
Source Step = 89.8269%
vernier = 0.00741577
Source Step = 90.0217%
Source Step = 90.1565%
Source Step = 90.2127%
Source Step = 90.2689%
Source Step = 90.325%
Source Step = 90.3812%
Source Step = 90.4374%
vernier = 0.00278091
Source Step = 90.5104%
Source Step = 90.5947%
Source Step = 90.679%
Source Step = 90.7633%
Source Step = 90.8475%
vernier = 0.00417137
Source Step = 90.9529%
Source Step = 91.0793%
Source Step = 91.2057%
Source Step = 91.3321%
Source Step = 91.4585%
vernier = 0.00625706
Source Step = 91.6102%
Source Step = 91.7998%
Source Step = 91.9894%
Source Step = 92.179%
Source Step = 92.3686%
vernier = 0.00938559
Source Step = 92.5866%
Source Step = 92.8711%
Source Step = 93.1555%
Source Step = 93.4399%
Source Step = 93.7243%
vernier = 0.0140784
Source Step = 94.0371%
Source Step = 94.4638%
Source Step = 94.8904%
Source Step = 95.317%
Source Step = 95.7436%
vernier = 0.0211176
Source Step = 96.1916%
Source Step = 96.8315%
Source Step = 97.4714%
Source Step = 97.8034%
Source Step = 97.8434%
Source Step = 97.8834%
Source Step = 97.9234%
Starting source stepping with srcstepmethod=1
Source Step = 3.0303%
Source Step = 33.3333%
Source Step = 63.6364%
Source Step = 88.6364%
vernier = 0.0625
Source stepping failed

Pseudo Transient succeeded in finding the operating point at 299.015 ms.

Date: Mon Apr 07 20:02:30 2025
Total elapsed time: 15.418 seconds.

tnom = 27
temp = 27
method = trap
totiter = 59637
traniter = 0
tranpoints = 0
accept = 0
rejected = 36
matrix size = 274
fillins = 369
solver = Normal
Thread vector: 17.5/7.2[6] 0.0/0.0[6] 6.1/2.4[6] 1.6/3.1[1]  2592/500
Matrix Compiler1: 34.78 KB object code size  8.5/4.5/[2.1]
Matrix Compiler2: 28.92 KB object code size  5.0/5.3/[1.8]

