Circuit: * C:\users\bonga\My Documents\EEE4022F\Digitizing-HP141T\Simulations\hp141t-emulator-simulations\emulator-pen-lift-ct-sim.asc

Limiting rise time of source v2 to 0.0044
Limiting fall time of source v2 to 0.0044
Direct Newton iteration for .op point succeeded.

Date: Mon Apr 28 20:08:22 2025
Total elapsed time: 0.039 seconds.

tnom = 27
temp = 27
method = modified trap
totiter = 1526
traniter = 1521
tranpoints = 513
accept = 377
rejected = 136
matrix size = 9
fillins = 0
solver = Normal
Matrix Compiler1: 456 bytes object code size  0.2/0.1/[0.1]
Matrix Compiler2: off  [0.1]/0.1/0.1

